Circuit: * I:\GitHub\MasterControl_r1\SPICE\BuckConverter.asc

Direct Newton iteration for .op point succeeded.

Date: Fri Jul 26 16:10:16 2019
Total elapsed time: 0.097 seconds.

tnom = 27
temp = 27
method = modified trap
totiter = 4526
traniter = 4517
tranpoints = 1745
accept = 1462
rejected = 283
matrix size = 5
fillins = 0
solver = Normal
Matrix Compiler1: off  [0.0]/0.0/0.0
Matrix Compiler2: 355 bytes object code size  0.1/0.1/[0.0]

